210
produced by arm61
N 19.945047 73.402992 27.117208
C 23.038988 75.380249 27.117208
C 26.833982 76.007179 27.117208
C 29.998363 77.587418 27.117208
N 8.632936 29.396477 58.726433
C 6.241693 27.285038 58.726433
C 4.096375 24.170158 58.726433
C 1.451710 22.097485 58.726433
N -4.063673 24.008503 35.047462
C -0.319593 22.924036 35.047462
C 2.615366 20.390852 35.047462
C 6.311300 19.226475 35.047462
N 20.712986 12.417953 48.628361
C 18.489788 11.175940 48.628361
C 17.622873 8.802258 48.628361
C 15.396178 7.197435 48.628361
N 4.069278 -3.998217 0.000000
C 1.376607 -1.296538 0.000000
C -1.253473 1.432562 0.000000
C -4.192412 3.862192 0.000000
N 4.069278 -3.998217 0.000000
C 1.376607 -1.296538 0.000000
C -1.253473 1.432562 0.000000
C -4.192412 3.862192 0.000000
N 4.069278 -3.998217 0.000000
C 1.376607 -1.296538 0.000000
C -1.253473 1.432562 0.000000
C -4.192412 3.862192 0.000000
N 4.069278 -3.998217 0.000000
C 1.376607 -1.296538 0.000000
C -1.253473 1.432562 0.000000
C -4.192412 3.862192 0.000000
N 4.069278 -3.998217 0.000000
C 1.376607 -1.296538 0.000000
C -1.253473 1.432562 0.000000
C -4.192412 3.862192 0.000000
N 4.069278 -3.998217 0.000000
C 1.376607 -1.296538 0.000000
C -1.253473 1.432562 0.000000
C -4.192412 3.862192 0.000000
N 4.069278 -3.998217 0.000000
C 1.376607 -1.296538 0.000000
C -1.253473 1.432562 0.000000
C -4.192412 3.862192 0.000000
N 4.069278 -3.998217 0.000000
C 1.376607 -1.296538 0.000000
C -1.253473 1.432562 0.000000
C -4.192412 3.862192 0.000000
N 4.069278 -3.998217 0.000000
C 1.376607 -1.296538 0.000000
C -1.253473 1.432562 0.000000
C -4.192412 3.862192 0.000000
N 4.069278 -3.998217 0.000000
C 1.376607 -1.296538 0.000000
C -1.253473 1.432562 0.000000
C -4.192412 3.862192 0.000000
N 4.069278 -3.998217 0.000000
C 1.376607 -1.296538 0.000000
C -1.253473 1.432562 0.000000
C -4.192412 3.862192 0.000000
N 4.069278 -3.998217 0.000000
C 1.376607 -1.296538 0.000000
C -1.253473 1.432562 0.000000
C -4.192412 3.862192 0.000000
N 4.069278 -3.998217 0.000000
C 1.376607 -1.296538 0.000000
C -1.253473 1.432562 0.000000
C -4.192412 3.862192 0.000000
N 4.069278 -3.998217 0.000000
C 1.376607 -1.296538 0.000000
C -1.253473 1.432562 0.000000
C -4.192412 3.862192 0.000000
N 4.069278 -3.998217 0.000000
C 1.376607 -1.296538 0.000000
C -1.253473 1.432562 0.000000
C -4.192412 3.862192 0.000000
N 4.069278 -3.998217 0.000000
C 1.376607 -1.296538 0.000000
C -1.253473 1.432562 0.000000
C -4.192412 3.862192 0.000000
N 4.069278 -3.998217 0.000000
C 1.376607 -1.296538 0.000000
C -1.253473 1.432562 0.000000
C -4.192412 3.862192 0.000000
N 4.069278 -3.998217 0.000000
C 1.376607 -1.296538 0.000000
C -1.253473 1.432562 0.000000
C -4.192412 3.862192 0.000000
N 4.069278 -3.998217 0.000000
C 1.376607 -1.296538 0.000000
C -1.253473 1.432562 0.000000
C -4.192412 3.862192 0.000000
N 4.069278 -3.998217 0.000000
C 1.376607 -1.296538 0.000000
C -1.253473 1.432562 0.000000
C -4.192412 3.862192 0.000000
N 4.069278 -3.998217 0.000000
C 1.376607 -1.296538 0.000000
C -1.253473 1.432562 0.000000
C -4.192412 3.862192 0.000000
N 4.069278 -3.998217 0.000000
C 1.376607 -1.296538 0.000000
C -1.253473 1.432562 0.000000
C -4.192412 3.862192 0.000000
N 4.069278 -3.998217 0.000000
C 1.376607 -1.296538 0.000000
C -1.253473 1.432562 0.000000
C -4.192412 3.862192 0.000000
N 4.069278 -3.998217 0.000000
C 1.376607 -1.296538 0.000000
C -1.253473 1.432562 0.000000
C -4.192412 3.862192 0.000000
N 4.069278 -3.998217 0.000000
C 1.376607 -1.296538 0.000000
C -1.253473 1.432562 0.000000
C -4.192412 3.862192 0.000000
N 4.069278 -3.998217 0.000000
C 1.376607 -1.296538 0.000000
C -1.253473 1.432562 0.000000
C -4.192412 3.862192 0.000000
N 4.069278 -3.998217 0.000000
C 1.376607 -1.296538 0.000000
C -1.253473 1.432562 0.000000
C -4.192412 3.862192 0.000000
N 4.069278 -3.998217 0.000000
C 1.376607 -1.296538 0.000000
C -1.253473 1.432562 0.000000
C -4.192412 3.862192 0.000000
N 4.069278 -3.998217 0.000000
C 1.376607 -1.296538 0.000000
C -1.253473 1.432562 0.000000
C -4.192412 3.862192 0.000000
N 4.069278 -3.998217 0.000000
C 1.376607 -1.296538 0.000000
C -1.253473 1.432562 0.000000
C -4.192412 3.862192 0.000000
N 4.069278 -3.998217 0.000000
C 1.376607 -1.296538 0.000000
C -1.253473 1.432562 0.000000
C -4.192412 3.862192 0.000000
N 4.069278 -3.998217 0.000000
C 1.376607 -1.296538 0.000000
C -1.253473 1.432562 0.000000
C -4.192412 3.862192 0.000000
N 4.069278 -3.998217 0.000000
C 1.376607 -1.296538 0.000000
C -1.253473 1.432562 0.000000
C -4.192412 3.862192 0.000000
N 4.069278 -3.998217 0.000000
C 1.376607 -1.296538 0.000000
C -1.253473 1.432562 0.000000
C -4.192412 3.862192 0.000000
N 4.069278 -3.998217 0.000000
C 1.376607 -1.296538 0.000000
C -1.253473 1.432562 0.000000
C -4.192412 3.862192 0.000000
N 4.069278 -3.998217 0.000000
C 1.376607 -1.296538 0.000000
C -1.253473 1.432562 0.000000
C -4.192412 3.862192 0.000000
N 4.069278 -3.998217 0.000000
C 1.376607 -1.296538 0.000000
C -1.253473 1.432562 0.000000
C -4.192412 3.862192 0.000000
N 4.069278 -3.998217 0.000000
C 1.376607 -1.296538 0.000000
C -1.253473 1.432562 0.000000
C -4.192412 3.862192 0.000000
N 4.069278 -3.998217 0.000000
C 1.376607 -1.296538 0.000000
C -1.253473 1.432562 0.000000
C -4.192412 3.862192 0.000000
N 4.069278 -3.998217 0.000000
C 1.376607 -1.296538 0.000000
C -1.253473 1.432562 0.000000
C -4.192412 3.862192 0.000000
N 4.069278 -3.998217 0.000000
C 1.376607 -1.296538 0.000000
C -1.253473 1.432562 0.000000
C -4.192412 3.862192 0.000000
N 4.069278 -3.998217 0.000000
C 1.376607 -1.296538 0.000000
C -1.253473 1.432562 0.000000
C -4.192412 3.862192 0.000000
N 4.069278 -3.998217 0.000000
C 1.376607 -1.296538 0.000000
C -1.253473 1.432562 0.000000
C -4.192412 3.862192 0.000000
N 4.069278 -3.998217 0.000000
C 1.376607 -1.296538 0.000000
C -1.253473 1.432562 0.000000
C -4.192412 3.862192 0.000000
N 4.069278 -3.998217 0.000000
C 1.376607 -1.296538 0.000000
C -1.253473 1.432562 0.000000
C -4.192412 3.862192 0.000000
N 4.069278 -3.998217 0.000000
C 1.376607 -1.296538 0.000000
C -1.253473 1.432562 0.000000
C -4.192412 3.862192 0.000000
U 11.027790 73.320465 60.609020
U 0.000000 0.000000 1.432562
U 0.000000 0.000000 1.432562
U 0.000000 0.000000 1.432562
U 0.000000 0.000000 1.432562
U 0.000000 0.000000 1.432562
U 0.000000 0.000000 1.432562
U 0.000000 0.000000 1.432562
U 0.000000 0.000000 1.432562
U 0.000000 0.000000 1.432562
