16
This xyz file was produced by fitoog.
N 4.069278 0.467270 -3.998217 
C 1.376607 -0.474490 -1.296538 
C -1.253473 0.349520 1.432562 
C -4.192412 -0.342300 3.862192 
N 28.250900 21.104942 13.740700 
C 25.995142 22.066710 16.810392 
C 24.573668 24.526089 19.451445 
C 22.158829 25.768612 22.216181 
N 17.501064 9.331462 20.759075 
C 15.767462 8.045232 17.476288 
C 13.596346 8.468345 14.290141 
C 12.120371 7.502358 10.839422 
N 14.497545 32.601379 4.140701 
C 12.151625 30.600954 6.576148 
C 8.701612 29.454393 7.927853 
C 6.227404 27.283794 9.973795 
